Version 4
SHEET 1 1500 680
WIRE 112 96 32 96
WIRE 208 96 112 96
WIRE 384 96 208 96
WIRE 32 112 32 96
WIRE 112 112 112 96
WIRE -128 144 -208 144
WIRE 208 144 208 96
WIRE -128 176 -128 144
WIRE 32 176 -128 176
WIRE -64 208 -128 208
WIRE 32 208 32 176
WIRE 112 208 112 176
WIRE 112 208 80 208
WIRE -128 224 -128 208
WIRE -128 224 -208 224
WIRE 32 288 32 272
WIRE 112 288 112 272
WIRE 112 288 32 288
WIRE 208 288 208 224
WIRE 208 288 112 288
WIRE 384 288 208 288
WIRE -64 384 -64 208
WIRE 80 384 80 208
WIRE 80 384 -64 384
FLAG 384 96 V0
IOPIN 384 96 Out
FLAG 208 288 0
SYMBOL diode 48 176 R180
WINDOW 0 24 64 Left 2
WINDOW 3 19 88 Left 2
SYMATTR InstName D1
SYMATTR Value 1N4007
SYMBOL diode 48 272 R180
WINDOW 0 21 3 Left 2
WINDOW 3 12 -28 Left 2
SYMATTR InstName D2
SYMATTR Value 1N4007
SYMBOL diode 128 176 R180
WINDOW 0 -24 60 Left 2
WINDOW 3 -62 98 Left 2
SYMATTR InstName D3
SYMATTR Value 1N4007
SYMBOL res 192 128 R0
WINDOW 3 36 68 Left 2
SYMATTR Value 1K
SYMATTR InstName RL
SYMATTR SpiceLine tol=1 pwr=0.1
SYMBOL voltage -208 128 R0
WINDOW 0 -72 55 Left 2
WINDOW 3 -117 196 Left 2
WINDOW 123 0 0 Left 2
WINDOW 39 0 0 Left 2
SYMATTR InstName V1
SYMATTR Value SINE(0 15 100 0 0 0)
SYMBOL diode 128 272 R180
WINDOW 0 -17 4 Left 2
WINDOW 3 -51 -35 Left 2
SYMATTR InstName D4
SYMATTR Value 1N4007
TEXT 112 368 Left 2 !.model 1N4007 D(IS=76.9p RS=42.0m BV=1.00k IBV=5.00u  CJO=26.5p  M=0.333 N=1.45 TT=4.32u type= silicon mfg=Vishay)
TEXT 112 408 Left 2 !.tran 10m
